Version 4.1
SHEET 1 880 680
WIRE 112 80 -32 80
WIRE 256 80 112 80
WIRE 320 80 256 80
WIRE 464 80 400 80
WIRE 576 80 464 80
WIRE -32 112 -32 80
WIRE 112 112 112 80
WIRE 576 192 576 80
WIRE 256 208 256 80
WIRE 464 208 464 80
WIRE 112 224 112 192
WIRE 160 224 112 224
WIRE 160 240 160 224
WIRE 112 272 112 224
WIRE -32 384 -32 192
WIRE 112 384 112 352
WIRE 112 384 -32 384
WIRE 256 384 256 272
WIRE 256 384 112 384
WIRE 320 384 256 384
WIRE 464 384 464 272
WIRE 464 384 400 384
WIRE 576 384 576 272
WIRE 576 384 464 384
FLAG 576 80 POSITIVE
FLAG 576 384 NEGATIVE
FLAG -32 80 INPUT_POS
FLAG -32 384 INPUT_NEG
FLAG 160 240 0
SYMBOL voltage -32 96 R0
WINDOW 123 24 72 Left 2
WINDOW 39 0 0 Left 0
WINDOW 3 24 44 Left 2
SYMATTR Value2 AC 1
SYMATTR Value ""
SYMATTR InstName V1
SYMBOL cap 240 208 R0
SYMATTR InstName C1
SYMATTR Value 1.1n
SYMBOL cap 448 208 R0
SYMATTR InstName C2
SYMATTR Value 1.1n
SYMBOL ind 304 96 R270
WINDOW 0 32 56 VTop 2
WINDOW 3 5 56 VBottom 2
SYMATTR InstName L1
SYMATTR Value 2.7n
SYMBOL ind 304 400 R270
WINDOW 0 32 56 VTop 2
WINDOW 3 5 56 VBottom 2
SYMATTR InstName L2
SYMATTR Value 2.7n
SYMBOL res 96 96 R0
SYMATTR InstName R1
SYMATTR Value 50
SYMBOL res 96 256 R0
SYMATTR InstName R2
SYMATTR Value 50
SYMBOL res 560 176 R0
SYMATTR InstName R3
SYMATTR Value 100
TEXT 24 440 Left 2 ;.tran 0.01m
TEXT 24 464 Left 2 !.ac dec 1000 1 10000k
