Version 4.1
SHEET 1 936 680
WIRE 64 80 32 80
WIRE 288 80 208 80
WIRE 432 80 288 80
WIRE 496 80 432 80
WIRE 608 80 560 80
WIRE 720 80 608 80
WIRE 752 80 720 80
WIRE 880 80 816 80
WIRE 32 128 32 80
WIRE 288 128 288 80
WIRE 432 128 432 80
WIRE 608 128 608 80
WIRE 720 128 720 80
WIRE 880 128 880 80
WIRE 32 256 32 208
WIRE 288 256 288 192
WIRE 288 256 32 256
WIRE 432 256 432 208
WIRE 432 256 288 256
WIRE 608 256 608 192
WIRE 608 256 432 256
WIRE 720 256 720 208
WIRE 720 256 608 256
WIRE 880 256 880 208
WIRE 880 256 720 256
WIRE 880 288 880 256
FLAG 880 80 output
FLAG 880 288 0
SYMBOL voltage 32 112 R0
WINDOW 123 24 124 Left 2
WINDOW 39 0 0 Left 0
SYMATTR InstName V1
SYMATTR Value ""
SYMATTR Value2 AC 1
SYMBOL cap 208 64 R90
WINDOW 0 0 32 VBottom 2
WINDOW 3 32 32 VTop 2
SYMATTR InstName C1
SYMATTR Value 200f
SYMBOL cap 272 128 R0
SYMATTR InstName C2
SYMATTR Value 1.1p
SYMBOL ind 416 112 R0
SYMATTR InstName L1
SYMATTR Value 100n
SYMBOL cap 560 64 R90
WINDOW 0 0 32 VBottom 2
WINDOW 3 32 32 VTop 2
SYMATTR InstName C3
SYMATTR Value 5.6f
SYMBOL cap 592 128 R0
SYMATTR InstName C4
SYMATTR Value 1.1n
SYMBOL ind 704 112 R0
SYMATTR InstName L2
SYMATTR Value 100n
SYMBOL cap 816 64 R90
WINDOW 0 0 32 VBottom 2
WINDOW 3 32 32 VTop 2
SYMATTR InstName C5
SYMATTR Value 200f
SYMBOL res 864 112 R0
SYMATTR InstName R1
SYMATTR Value 50
SYMBOL res 160 64 R90
WINDOW 0 0 56 VBottom 2
WINDOW 3 32 56 VTop 2
SYMATTR InstName R2
SYMATTR Value 50
TEXT 64 288 Left 2 !.ac dec 1000 1 1000MHz
TEXT 64 320 Left 2 ;.tran 20m
