Version 4.1
SHEET 1 880 680
WIRE 208 112 96 112
WIRE 368 112 288 112
WIRE 528 112 368 112
WIRE 96 144 96 112
WIRE 528 144 528 112
WIRE 368 160 368 112
WIRE 96 272 96 224
WIRE 368 272 368 224
WIRE 528 272 528 224
FLAG 96 272 0
FLAG 368 272 0
FLAG 528 272 0
SYMBOL voltage 96 128 R0
WINDOW 123 0 0 Left 0
WINDOW 39 0 0 Left 0
SYMATTR InstName V1
SYMATTR Value SINE(2.5 2.5 1k)
SYMBOL res 304 96 R90
WINDOW 0 0 56 VBottom 2
WINDOW 3 32 56 VTop 2
SYMATTR InstName R1
SYMATTR Value 1.8k
SYMBOL cap 352 160 R0
SYMATTR InstName C1
SYMATTR Value 10p
SYMBOL res 512 128 R0
SYMATTR InstName R2
SYMATTR Value 3.6k
TEXT 56 296 Left 2 !.tran 10m
